Circuit: * C:\Users\CheeLoong\Desktop\ToSave\ltSpiceDataSheets\rc_highpass.asc

Direct Newton iteration for .op point succeeded.

Date: Wed Oct 05 08:31:53 2016
Total elapsed time: 0.013 seconds.

tnom = 27
temp = 27
method = trap
totiter = 3
traniter = 0
tranpoints = 0
accept = 0
rejected = 0
matrix size = 3
fillins = 0
solver = Normal
Matrix Compiler1: 86 bytes object code size
Matrix Compiler2: 163 bytes object code size

